Version 4
SHEET 1 1492 680
WIRE 592 -384 592 -416
WIRE 768 -384 768 -416
WIRE 592 -240 592 -304
WIRE 768 -240 768 -304
WIRE 928 -160 864 -160
WIRE 1056 -160 1008 -160
WIRE 112 -64 -112 -64
WIRE 320 -64 320 -144
WIRE 320 -64 192 -64
WIRE 672 -64 592 -64
WIRE 736 -64 720 -64
WIRE 768 -64 736 -64
WIRE 864 -64 864 -160
WIRE 864 -64 848 -64
WIRE 912 -64 864 -64
WIRE 320 -48 320 -64
WIRE 1056 -48 1056 -160
WIRE 1056 -48 976 -48
WIRE 1120 -48 1056 -48
WIRE 912 -32 880 -32
WIRE -16 16 -112 16
WIRE 880 16 880 -32
WIRE 320 48 320 16
WIRE -16 128 -16 96
WIRE 320 128 320 112
WIRE 320 128 -16 128
WIRE -16 160 -16 128
FLAG -16 160 0
FLAG 320 -144 V_Amp
FLAG 880 16 0
FLAG 592 -64 V_Amp
FLAG 592 -416 +12v
FLAG 592 -240 0
FLAG 768 -240 0
FLAG 768 -416 -12v
FLAG 944 -80 +12v
FLAG 944 -16 -12v
SYMBOL Misc\\signal -16 0 R0
WINDOW 3 -216 44 Left 2
WINDOW 123 0 0 Left 0
WINDOW 39 0 0 Left 0
SYMATTR InstName V1
SYMATTR Value SINE(0 4 80)
SYMBOL res 208 -80 R90
WINDOW 0 0 56 VBottom 2
WINDOW 3 32 56 VTop 2
SYMATTR InstName R1
SYMATTR Value 1k
SYMBOL cap 736 -80 R90
WINDOW 0 0 32 VBottom 2
WINDOW 3 32 32 VTop 2
SYMATTR InstName C1
SYMATTR Value 1n
SYMBOL OpAmps\\UniversalOpamp2 944 -48 R0
SYMATTR InstName U1
SYMBOL res 1024 -176 R90
WINDOW 0 0 56 VBottom 2
WINDOW 3 32 56 VTop 2
SYMATTR InstName R3
SYMATTR Value 500k
SYMBOL voltage 592 -400 R0
WINDOW 123 0 0 Left 0
WINDOW 39 0 0 Left 0
SYMATTR InstName V3
SYMATTR Value 12
SYMBOL voltage 768 -400 R0
WINDOW 123 0 0 Left 0
WINDOW 39 0 0 Left 0
SYMATTR InstName V4
SYMATTR Value -12
SYMBOL zener 304 48 R0
SYMATTR InstName D1
SYMATTR Value BZX84C8V2L
SYMBOL zener 336 16 R180
WINDOW 0 24 64 Left 2
WINDOW 3 24 0 Left 2
SYMATTR InstName D2
SYMATTR Value BZX84C8V2L
SYMBOL res 752 -48 R270
WINDOW 0 32 56 VTop 2
WINDOW 3 0 56 VBottom 2
SYMATTR InstName R2
SYMATTR Value 100k
SYMBOL Misc\\signal -112 -80 R0
WINDOW 3 -216 44 Left 2
WINDOW 123 0 0 Left 0
WINDOW 39 0 0 Left 0
SYMATTR InstName V2
SYMATTR Value SINE(0 4 30)
TEXT -202 80 Left 2 !.tran 100ms
